
  corina  07222110383D 1   1.00000     0.00000 
CORINA 4.3.0 0026  30.10.2019
 44 46  0     0  0            999 V2000
   -0.3250   -0.2176   -1.5970 C   0  0  0  0  0  0  0  0  0  0  0  0
    0.7823   -0.5746   -0.8812 C   0  0  0  0  0  0  0  0  0  0  0  0
    0.6622   -1.0601    0.4133 C   0  0  0  0  0  0  0  0  0  0  0  0
   -0.5791   -1.1896    0.9986 C   0  0  0  0  0  0  0  0  0  0  0  0
   -1.7159   -0.8317    0.2864 C   0  0  0  0  0  0  0  0  0  0  0  0
   -1.5934   -0.3351   -1.0223 C   0  0  0  0  0  0  0  0  0  0  0  0
   -3.0675   -0.8365    0.5672 N   0  0  0  0  0  0  0  0  0  0  0  0
   -2.8494   -0.0655   -1.4621 N   0  0  0  0  0  0  0  0  0  0  0  0
   -3.7104   -0.3527   -0.5299 C   0  0  0  0  0  0  0  0  0  0  0  0
   -5.2031   -0.1863   -0.6523 C   0  0  0  0  0  0  0  0  0  0  0  0
   -5.5249    1.2576   -1.0428 C   0  0  0  0  0  0  0  0  0  0  0  0
   -7.0423    1.4412   -1.1116 C   0  0  0  0  0  0  0  0  0  0  0  0
   -7.6245    0.4877   -2.1570 C   0  0  0  0  0  0  0  0  0  0  0  0
   -6.7663    3.1858   -2.8787 C   0  0  0  0  0  0  0  0  0  0  0  0
   -7.6152    1.1549    0.1658 O   0  0  0  0  0  0  0  0  0  0  0  0
   -7.3641    2.8849   -1.5029 C   0  0  0  0  0  0  0  0  0  0  0  0
   -6.7663    3.8393   -0.4672 C   0  0  0  0  0  0  0  0  0  0  0  0
   -9.0586    0.7460   -2.3086 N   0  0  0  0  0  0  0  0  0  0  0  0
  -10.0110    0.7359   -1.2814 N   0  0  0  0  0  0  0  0  0  0  0  0
  -11.1782    1.0135   -1.8033 C   0  0  0  0  0  0  0  0  0  0  0  0
  -11.0083    1.2000   -3.1791 C   0  0  0  0  0  0  0  0  0  0  0  0
   -9.6964    1.0299   -3.4635 C   0  0  0  0  0  0  0  0  0  0  0  0
   -0.2201    0.1591   -2.6037 H   0  0  0  0  0  0  0  0  0  0  0  0
    1.7612   -0.4778   -1.3271 H   0  0  0  0  0  0  0  0  0  0  0  0
    1.5474   -1.3381    0.9661 H   0  0  0  0  0  0  0  0  0  0  0  0
   -0.6670   -1.5679    2.0064 H   0  0  0  0  0  0  0  0  0  0  0  0
   -3.4814   -1.1221    1.3967 H   0  0  0  0  0  0  0  0  0  0  0  0
   -5.5826   -0.8629   -1.4180 H   0  0  0  0  0  0  0  0  0  0  0  0
   -5.6741   -0.4179    0.3030 H   0  0  0  0  0  0  0  0  0  0  0  0
   -5.1102    1.9366   -0.2977 H   0  0  0  0  0  0  0  0  0  0  0  0
   -5.0879    1.4765   -2.0171 H   0  0  0  0  0  0  0  0  0  0  0  0
   -7.1238    0.6461   -3.1121 H   0  0  0  0  0  0  0  0  0  0  0  0
   -7.4731   -0.5422   -1.8337 H   0  0  0  0  0  0  0  0  0  0  0  0
   -7.1922    2.5059   -3.6165 H   0  0  0  0  0  0  0  0  0  0  0  0
   -6.9956    4.2143   -3.1574 H   0  0  0  0  0  0  0  0  0  0  0  0
   -5.6852    3.0516   -2.8423 H   0  0  0  0  0  0  0  0  0  0  0  0
   -7.4506    0.2545    0.4778 H   0  0  0  0  0  0  0  0  0  0  0  0
   -8.4452    3.0191   -1.5392 H   0  0  0  0  0  0  0  0  0  0  0  0
   -7.0772    4.8597   -0.6913 H   0  0  0  0  0  0  0  0  0  0  0  0
   -7.1171    3.5627    0.5270 H   0  0  0  0  0  0  0  0  0  0  0  0
   -5.6786    3.7755   -0.4995 H   0  0  0  0  0  0  0  0  0  0  0  0
  -12.1122    1.0824   -1.2655 H   0  0  0  0  0  0  0  0  0  0  0  0
  -11.7868    1.4376   -3.8890 H   0  0  0  0  0  0  0  0  0  0  0  0
   -9.2411    1.1079   -4.4397 H   0  0  0  0  0  0  0  0  0  0  0  0
  1  2  2  0  0  0  0
  1  6  1  0  0  0  0
  1 23  1  0  0  0  0
  2  3  1  0  0  0  0
  2 24  1  0  0  0  0
  3  4  2  0  0  0  0
  3 25  1  0  0  0  0
  4  5  1  0  0  0  0
  4 26  1  0  0  0  0
  5  6  2  0  0  0  0
  5  7  1  0  0  0  0
  6  8  1  0  0  0  0
  7  9  1  0  0  0  0
  7 27  1  0  0  0  0
  8  9  2  0  0  0  0
  9 10  1  0  0  0  0
 10 11  1  0  0  0  0
 10 28  1  0  0  0  0
 10 29  1  0  0  0  0
 11 12  1  0  0  0  0
 11 30  1  0  0  0  0
 11 31  1  0  0  0  0
 12 13  1  0  0  0  0
 12 15  1  0  0  0  0
 12 16  1  0  0  0  0
 13 18  1  0  0  0  0
 13 32  1  0  0  0  0
 13 33  1  0  0  0  0
 14 16  1  0  0  0  0
 14 34  1  0  0  0  0
 14 35  1  0  0  0  0
 14 36  1  0  0  0  0
 15 37  1  0  0  0  0
 16 17  1  0  0  0  0
 16 38  1  0  0  0  0
 17 39  1  0  0  0  0
 17 40  1  0  0  0  0
 17 41  1  0  0  0  0
 18 19  1  0  0  0  0
 18 22  1  0  0  0  0
 19 20  2  0  0  0  0
 20 21  1  0  0  0  0
 20 42  1  0  0  0  0
 21 22  2  0  0  0  0
 21 43  1  0  0  0  0
 22 44  1  0  0  0  0
M  END
>  <ABUNDANCE> 
68.43% at pH 7.4

>  <NETCHARGE> 
0.3157

$$$$
